Circuit: *** RF switch circuit ***

Fatal Error: No analysis request found.
